


 25 25  0  0  0  0  0  0  0  0999 V2000
  -25.9304   10.3834   20.6287 N   0  0  0  0  0  0  0  0  0  0  0  0
  -26.4182    9.3561   21.4111 C   0  0  0  0  0  0  0  0  0  0  0  0
  -27.0732    9.5263   22.4371 O   0  0  0  0  0  0  0  0  0  0  0  0
  -25.7982   10.1466   19.6438 H   0  0  0  0  0  0  0  0  0  0  0  0
  -26.2133   11.7658   20.9560 C   0  0  0  0  0  0  0  0  0  0  0  0
  -26.9919   12.4870   19.8511 C   0  0  0  0  0  0  0  0  0  0  0  0
  -24.6768   13.2098   16.2582 C   0  0  0  0  0  0  0  0  0  0  0  0
  -24.6173   14.0975   17.3368 C   0  0  0  0  0  0  0  0  0  0  0  0
  -25.3702   13.8632   18.4908 C   0  0  0  0  0  0  0  0  0  0  0  0
  -26.1956   12.7387   18.5881 C   0  0  0  0  0  0  0  0  0  0  0  0
  -26.2453   11.8415   17.5092 C   0  0  0  0  0  0  0  0  0  0  0  0
  -25.5028   12.0727   16.3431 C   0  0  0  0  0  0  0  0  0  0  0  0
  -24.3228   14.4612   14.2533 C   0  0  0  0  0  0  0  0  0  0  0  0
  -23.9790   13.3631   15.0857 O   0  0  0  0  0  0  0  0  0  0  0  0
  -25.5068   11.2458   15.2457 O   0  0  0  0  0  0  0  0  0  0  0  0
  -26.6477   11.2829   14.4005 C   0  0  0  0  0  0  0  0  0  0  0  0
  -26.1744    7.9710   20.8144 C   0  0  0  0  0  0  0  0  0  0  0  0
  -24.9774    8.0084   19.9952 N   0  0  0  0  0  0  0  0  0  0  0  0
  -24.4741    6.8488   19.4481 C   0  0  0  0  0  0  0  0  0  0  0  0
  -25.0298    5.7622   19.5805 O   0  0  0  0  0  0  0  0  0  0  0  0
  -24.3502    8.7917   20.1309 H   0  0  0  0  0  0  0  0  0  0  0  0
  -23.1554    7.0556   18.7232 C   0  0  0  0  0  0  0  0  0  0  0  0
  -23.3147    7.2215   17.2034 C   0  0  0  0  0  0  0  0  0  0  0  0
  -23.7938    5.9105   16.5772 C   0  0  0  0  0  0  0  0  0  0  0  0
  -21.9994    7.6554   16.5501 C   0  0  0  0  0  0  0  0  0  0  0  0
 13 14  1  0
 14  7  1  0
  7  8  1  0
  8  9  2  0
  9 10  1  0
 10  6  1  0
  6  5  1  0
  5  1  1  0
  1  2  1  0
  2  3  2  0
  2 17  1  0
 17 18  1  0
 18 19  1  0
 19 20  2  0
 19 22  1  0
 22 23  1  0
 23 24  1  0
 23 25  1  0
 10 11  2  0
 11 12  1  0
 12 15  1  0
 15 16  1  0
 12  7  2  0
  1  4  1  0
 18 21  1  0
M  END
> <minimizedAffinity>
-6.87488

> <CNNscore>
0.5236796737

> <CNNaffinity>
5.6136817932

> <CNN_VS>
2.9397709370

> <CNNaffinity_variance>
0.1669356078

$$$$
