


 29 31  0  0  0  0  0  0  0  0999 V2000
  -27.3147   11.7178   19.8699 C   0  0  0  0  0  0  0  0  0  0  0  0
  -26.5703   10.4765   19.4375 C   0  0  0  0  0  0  0  0  0  0  0  0
  -26.1597   10.3008   18.0954 C   0  0  0  0  0  0  0  0  0  0  0  0
  -25.4709    9.1262   17.7353 C   0  0  0  0  0  0  0  0  0  0  0  0
  -25.1710    8.1242   18.6681 C   0  0  0  0  0  0  0  0  0  0  0  0
  -25.5455    8.3318   20.0003 C   0  0  0  0  0  0  0  0  0  0  0  0
  -25.2581    7.4006   20.9640 O   0  0  0  0  0  0  0  0  0  0  0  0
  -26.2299    9.4932   20.4035 C   0  0  0  0  0  0  0  0  0  0  0  0
  -26.6328    9.6619   21.8492 C   0  0  0  0  0  0  0  0  0  0  0  0
  -24.4522    6.9168   20.7019 H   0  0  0  0  0  0  0  0  0  0  0  0
  -26.4347   11.3242   17.0035 C   0  0  0  0  0  0  0  0  0  0  0  0
  -26.3424   12.7251   17.4551 N   0  0  0  0  0  0  0  0  0  0  0  0
  -24.9824   13.2321   17.2335 C   0  0  0  0  0  0  0  0  0  0  0  0
  -24.8210   14.6714   17.7350 C   0  0  0  0  0  0  0  0  0  0  0  0
  -25.8623   15.6538   17.1473 C   0  0  0  0  0  0  0  0  0  0  0  0
  -25.6027   15.9212   15.6368 C   0  0  0  0  0  0  0  0  0  0  0  0
  -24.7651   17.1795   15.4138 C   0  0  0  0  0  0  0  0  0  0  0  0
  -25.4396   18.3857   15.8930 N   0  0  0  0  0  0  0  0  0  0  0  0
  -26.2460   18.1779   17.0960 C   0  0  0  0  0  0  0  0  0  0  0  0
  -25.7785   16.9904   17.9337 C   0  0  0  0  0  0  0  0  0  0  0  0
  -27.2595   15.0170   17.3367 C   0  0  0  0  0  0  0  0  0  0  0  0
  -27.3384   13.5841   16.8011 C   0  0  0  0  0  0  0  0  0  0  0  0
  -24.7440   19.1122   16.0599 H   0  0  0  0  0  0  0  0  0  0  0  0
  -24.4779    6.8710   18.1836 C   0  0  0  0  0  0  0  0  0  0  0  0
  -22.9825    7.0585   17.9346 C   0  0  0  0  0  0  0  0  0  0  0  0
  -22.5758    7.0783   16.4870 C   0  0  0  0  0  0  0  0  0  0  0  0
  -21.8572    7.9155   15.9656 O   0  0  0  0  0  0  0  0  0  0  0  0
  -23.1500    6.1214   15.7308 O   0  0  0  0  0  0  0  0  0  0  0  0
  -22.8184    6.3324   14.8278 H   0  0  0  0  0  0  0  0  0  0  0  0
  1  2  1  0
  2  3  1  0
  3 11  1  0
 11 12  1  0
 12 13  1  0
 13 14  1  0
 14 15  1  0
 15 16  1  0
 16 17  1  0
 17 18  1  0
 18 19  1  0
 19 20  1  0
 15 21  1  0
 21 22  1  0
  3  4  2  0
  4  5  1  0
  5 24  1  0
 24 25  1  0
 25 26  1  0
 26 27  2  0
 26 28  1  0
  5  6  2  0
  6  7  1  0
  6  8  1  0
  8  9  1  0
  8  2  2  0
 22 12  1  0
 20 15  1  0
 18 23  1  0
 28 29  1  0
  7 10  1  0
M  END
> <minimizedAffinity>
-8.31162

> <CNNscore>
0.7235227227

> <CNNaffinity>
6.3713660240

> <CNN_VS>
4.6098279953

> <CNNaffinity_variance>
0.0648172125

$$$$
