


 26 27  0  0  0  0  0  0  0  0999 V2000
  -26.9004   10.9820   13.4693 C   0  0  0  0  0  0  0  0  0  0  0  0
  -26.8473   11.5970   14.8714 C   0  0  0  0  0  0  0  0  0  0  0  0
  -27.1490   12.7638   15.1009 O   0  0  0  0  0  0  0  0  0  0  0  0
  -26.4620   10.6994   15.8473 N   0  0  0  0  0  0  0  0  0  0  0  0
  -26.0532    9.8353   15.5010 H   0  0  0  0  0  0  0  0  0  0  0  0
  -26.2545   11.0995   17.2230 C   0  0  0  0  0  0  0  0  0  0  0  0
  -26.7947   10.0652   18.2155 C   0  0  0  0  0  0  0  0  0  0  0  0
  -25.7799    9.0236   18.5335 C   0  0  0  0  0  0  0  0  0  0  0  0
  -24.8457    8.3855   17.7478 C   0  0  0  0  0  0  0  0  0  0  0  0
  -24.1689    7.5034   18.6203 C   0  0  0  0  0  0  0  0  0  0  0  0
  -23.0584    6.5782   18.2926 C   0  0  0  0  0  0  0  0  0  0  0  0
  -24.6456    7.5847   19.8680 N   0  0  0  0  0  0  0  0  0  0  0  0
  -25.6239    8.4986   19.7864 N   0  0  0  0  0  0  0  0  0  0  0  0
  -26.1445    8.7152   20.6295 H   0  0  0  0  0  0  0  0  0  0  0  0
  -26.7780   12.0268   12.4236 N   0  0  0  0  0  0  0  0  0  0  0  0
  -25.4045   12.5253   12.3746 C   0  0  0  0  0  0  0  0  0  0  0  0
  -27.2662   11.5924   11.0975 C   0  0  0  0  0  0  0  0  0  0  0  0
  -24.8516    8.7265    8.9123 C   0  0  0  0  0  0  0  0  0  0  0  0
  -26.2417    8.7335    8.7808 C   0  0  0  0  0  0  0  0  0  0  0  0
  -27.0240    9.6556    9.4808 C   0  0  0  0  0  0  0  0  0  0  0  0
  -26.4262   10.5876   10.3385 C   0  0  0  0  0  0  0  0  0  0  0  0
  -25.0299   10.5774   10.4653 C   0  0  0  0  0  0  0  0  0  0  0  0
  -24.2489    9.6527    9.7608 C   0  0  0  0  0  0  0  0  0  0  0  0
  -24.2180    7.7686    8.1726 O   0  0  0  0  0  0  0  0  0  0  0  0
  -23.6056    5.6728    9.2282 C   0  0  0  0  0  0  0  0  0  0  0  0
  -24.5970    6.4038    8.3394 C   0  0  0  0  0  0  0  0  0  0  0  0
 25 26  1  0
 26 24  1  0
 24 18  1  0
 18 19  1  0
 19 20  2  0
 20 21  1  0
 21 17  1  0
 17 15  1  0
 15 16  1  0
 15  1  1  0
  1  2  1  0
  2  3  2  0
  2  4  1  0
  4  6  1  0
  6  7  1  0
  7  8  1  0
  8  9  2  0
  9 10  1  0
 10 11  1  0
 10 12  2  0
 12 13  1  0
 21 22  2  0
 22 23  1  0
 23 18  2  0
 13  8  1  0
  4  5  1  0
 13 14  1  0
M  END
> <minimizedAffinity>
-7.33902

> <CNNscore>
0.6600068808

> <CNNaffinity>
6.1036300659

> <CNN_VS>
4.0284376144

> <CNNaffinity_variance>
0.3404871225

$$$$
