


 27 29  0  0  0  0  0  0  0  0999 V2000
  -26.9639   10.8181   13.7583 C   0  0  0  0  0  0  0  0  0  0  0  0
  -26.3628   11.3438   14.8380 C   0  0  0  0  0  0  0  0  0  0  0  0
  -25.3342   12.4368   14.7182 C   0  0  0  0  0  0  0  0  0  0  0  0
  -25.7031   13.6590   15.5627 C   0  0  0  0  0  0  0  0  0  0  0  0
  -26.0457   13.2865   17.0261 C   0  0  0  0  0  0  0  0  0  0  0  0
  -26.2282   14.5329   17.9830 C   0  0  0  0  0  0  0  0  0  0  0  0
  -24.8685   15.2863   18.0912 C   0  0  0  0  0  0  0  0  0  0  0  0
  -26.5768   14.0211   19.4150 C   0  0  0  0  0  0  0  0  0  0  0  0
  -26.9052   15.0974   20.2975 O   0  0  0  0  0  0  0  0  0  0  0  0
  -27.7395   13.0335   19.4457 C   0  0  0  0  0  0  0  0  0  0  0  0
  -27.4538   11.8196   18.5664 C   0  0  0  0  0  0  0  0  0  0  0  0
  -27.1732   12.1827   17.0860 C   0  0  0  0  0  0  0  0  0  0  0  0
  -28.5233   12.6395   16.4557 C   0  0  0  0  0  0  0  0  0  0  0  0
  -26.7100   10.9048   16.2573 C   0  0  0  0  0  0  0  0  0  0  0  0
  -26.0644   15.4594   20.6342 H   0  0  0  0  0  0  0  0  0  0  0  0
  -27.2685   15.5627   17.4666 C   0  0  0  0  0  0  0  0  0  0  0  0
  -26.6695   16.8154   17.1391 O   0  0  0  0  0  0  0  0  0  0  0  0
  -26.2037   17.1052   17.9523 H   0  0  0  0  0  0  0  0  0  0  0  0
  -25.5440   10.0874   16.8803 C   0  0  0  0  0  0  0  0  0  0  0  0
  -25.9566    9.1254   18.0087 C   0  0  0  0  0  0  0  0  0  0  0  0
  -24.9210    8.1028   18.3411 C   0  0  0  0  0  0  0  0  0  0  0  0
  -23.7808    7.7308   17.5689 C   0  0  0  0  0  0  0  0  0  0  0  0
  -23.1312    6.7441   18.2745 C   0  0  0  0  0  0  0  0  0  0  0  0
  -23.7958    6.4709   19.4270 O   0  0  0  0  0  0  0  0  0  0  0  0
  -24.8717    7.2902   19.4509 C   0  0  0  0  0  0  0  0  0  0  0  0
  -25.6310    7.1323   20.5154 O   0  0  0  0  0  0  0  0  0  0  0  0
  -25.1781    6.4230   21.0032 H   0  0  0  0  0  0  0  0  0  0  0  0
  1  2  2  0
  2  3  1  0
  3  4  1  0
  4  5  1  0
  5  6  1  0
  6  7  1  0
  6 16  1  0
 16 17  1  0
  6  8  1  0
  8  9  1  0
  8 10  1  0
 10 11  1  0
 11 12  1  0
 12 13  1  0
 12 14  1  0
 14 19  1  0
 19 20  1  0
 20 21  1  0
 21 22  1  0
 22 23  2  0
 23 24  1  0
 24 25  1  0
 25 26  1  0
 14  2  1  0
 25 21  2  0
 12  5  1  0
 17 18  1  0
  9 15  1  0
 26 27  1  0
M  END
> <minimizedAffinity>
-7.43527

> <CNNscore>
0.4946439564

> <CNNaffinity>
5.8984417915

> <CNN_VS>
2.9176285267

> <CNNaffinity_variance>
0.6820771694

$$$$
