


 21 21  0  0  0  0  0  0  0  0999 V2000
  -25.3478    9.5849   16.7140 O   0  0  0  0  0  0  0  0  0  0  0  0
  -24.5700    8.0351   18.3643 C   0  0  0  0  0  0  0  0  0  0  0  0
  -24.9675    7.5183   19.9636 S   0  0  0  0  0  0  0  0  0  0  0  0
  -26.2823    8.5723   20.0436 C   0  0  0  0  0  0  0  0  0  0  0  0
  -27.2399    8.6373   21.4673 Cl  0  0  0  0  0  0  0  0  0  0  0  0
  -26.4557    9.3169   18.9095 C   0  0  0  0  0  0  0  0  0  0  0  0
  -25.4763    8.9874   17.9238 C   0  0  0  0  0  0  0  0  0  0  0  0
  -23.4148    7.4333   17.7230 C   0  0  0  0  0  0  0  0  0  0  0  0
  -22.3378    7.1925   18.2596 O   0  0  0  0  0  0  0  0  0  0  0  0
  -23.5586    5.7594   16.0842 C   0  0  0  0  0  0  0  0  0  0  0  0
  -23.6802    7.1417   16.4159 O   0  0  0  0  0  0  0  0  0  0  0  0
  -26.0557   10.8304   16.5941 C   0  0  0  0  0  0  0  0  0  0  0  0
  -25.2942   11.7564   15.6341 C   0  0  0  0  0  0  0  0  0  0  0  0
  -24.1226   11.0786   15.1518 O   0  0  0  0  0  0  0  0  0  0  0  0
  -23.8064   11.5709   14.3743 H   0  0  0  0  0  0  0  0  0  0  0  0
  -24.8510   13.0642   16.3213 C   0  0  0  0  0  0  0  0  0  0  0  0
  -23.5611   13.5511   15.8225 N   0  0  0  0  0  0  0  0  0  0  0  0
  -23.0574   14.0007   16.5887 H   0  0  0  0  0  0  0  0  0  0  0  0
  -23.6990   14.5074   14.7139 C   0  0  0  0  0  0  0  0  0  0  0  0
  -22.3451   14.8659   14.0990 C   0  0  0  0  0  0  0  0  0  0  0  0
  -24.3682   15.7761   15.2509 C   0  0  0  0  0  0  0  0  0  0  0  0
 10 11  1  0
 11  8  1  0
  8  9  2  0
  8  2  1  0
  2  3  1  0
  3  4  1  0
  4  5  1  0
  4  6  2  0
  6  7  1  0
  7  1  1  0
  1 12  1  0
 12 13  1  0
 13 14  1  0
 13 16  1  0
 16 17  1  0
 17 19  1  0
 19 20  1  0
 19 21  1  0
  7  2  2  0
 14 15  1  0
 17 18  1  0
M  END
> <minimizedAffinity>
-5.95102

> <CNNscore>
0.8681390285

> <CNNaffinity>
4.8142857552

> <CNN_VS>
4.1794695854

> <CNNaffinity_variance>
0.6311615109

$$$$
